data/models/IEEE_123_FLISR_Case_3Gen/ieee123_Curr_Elem.Txt

CIRCUIT ELEMENT CURRENTS

(Currents into element from indicated bus)

Power Delivery Elements

  Bus Phase    Magnitude, A     Angle      (Real)   +j  (Imag)

ELEMENT = "Vsource.SOURCE"
150       1           146.13 /_  151.5 =    -128.42 +j    69.721
150       2           77.482 /_   23.8 =     70.903 +j    31.244
150       3           108.65 /_  -91.2 =    -2.3139 +j   -108.63
------------
150       0           146.13 /_  -28.5 =     128.42 +j   -69.721
150       0           77.482 /_ -156.2 =    -70.903 +j   -31.244
150       0           108.65 /_   88.8 =     2.3139 +j    108.63

ELEMENT = "Vsource.VSOURCE_1"
SUP_2     1           140.22 /_  168.4 =    -137.37 +j    28.152
SUP_2     2            108.3 /_   48.7 =     71.512 +j    81.328
SUP_2     3           135.34 /_  -75.1 =      34.71 +j   -130.81
------------
SUP_2     0           140.22 /_  -11.6 =     137.37 +j   -28.152
SUP_2     0            108.3 /_ -131.3 =    -71.512 +j   -81.328
SUP_2     0           135.34 /_  104.9 =     -34.71 +j    130.81

ELEMENT = "Vsource.VSOURCE_2"
SUP_1     1           228.61 /_  149.8 =     -197.5 +j    115.13
SUP_1     2           155.83 /_   25.9 =     140.13 +j    68.159
SUP_1     3           166.65 /_  -91.5 =    -4.4173 +j   -166.59
------------
SUP_1     0           228.61 /_  -30.2 =      197.5 +j   -115.13
SUP_1     0           155.83 /_ -154.1 =    -140.13 +j   -68.159
SUP_1     0           166.65 /_   88.5 =     4.4173 +j    166.59

ELEMENT = "Vsource.VSOURCE_3"
SUP_3     1           123.53 /_  179.8 =    -123.53 +j   0.39806
SUP_3     2           95.878 /_   73.4 =     27.438 +j    91.868
SUP_3     3           115.17 /_  -45.9 =     80.189 +j   -82.664
------------
SUP_3     0           123.53 /_   -0.2 =     123.53 +j  -0.39806
SUP_3     0           95.878 /_ -106.6 =    -27.438 +j   -91.868
SUP_3     0           115.17 /_  134.1 =    -80.189 +j    82.664

ELEMENT = "Line.L115"
149       1           146.13 /_  -28.5 =     128.42 +j   -69.721
149       2           77.482 /_ -156.2 =    -70.903 +j   -31.244
149       3           108.65 /_   88.8 =     2.3139 +j    108.63
------------
1         1           146.13 /_  151.5 =    -128.43 +j    69.722
1         2           77.483 /_   23.8 =     70.904 +j    31.243
1         3           108.65 /_  -91.2 =    -2.3149 +j   -108.63

ELEMENT = "Line.L1"
1         2           9.3151 /_ -146.6 =    -7.7765 +j   -5.1281
------------
2         2           9.3153 /_   33.4 =     7.7768 +j     5.128

ELEMENT = "Line.L2"
1         3           46.558 /_   93.3 =    -2.7028 +j    46.479
------------
3         3           46.558 /_  -86.7 =     2.7023 +j    -46.48

ELEMENT = "Line.L3"
1         1           127.46 /_  -28.8 =     111.74 +j   -61.325
1         2           68.317 /_ -157.5 =    -63.128 +j   -26.115
1         3           62.352 /_   85.4 =     5.0177 +j     62.15
------------
7         1           127.46 /_  151.2 =    -111.74 +j    61.326
7         2           68.317 /_   22.5 =     63.129 +j    26.115
7         3           62.353 /_  -94.6 =    -5.0185 +j    -62.15

ELEMENT = "Line.L4"
3         3           18.709 /_   93.3 =    -1.0902 +j    18.677
------------
4         3           18.709 /_  -86.7 =     1.0899 +j   -18.677

ELEMENT = "Line.L5"
3         3           27.849 /_   93.3 =    -1.6121 +j    27.803
------------
5         3            27.85 /_  -86.7 =     1.6115 +j   -27.803

ELEMENT = "Line.L6"
5         3           18.533 /_   93.3 =    -1.0712 +j    18.502
------------
6         3           18.533 /_  -86.7 =     1.0707 +j   -18.502

ELEMENT = "Line.L7"
7         1           118.11 /_  -28.9 =     103.39 +j   -57.104
7         2           68.317 /_ -157.5 =    -63.129 +j   -26.115
7         3           62.353 /_   85.4 =     5.0185 +j     62.15
------------
8         1           118.11 /_  151.1 =    -103.39 +j    57.105
8         2           68.317 /_   22.5 =     63.129 +j    26.114
8         3           62.353 /_  -94.6 =     -5.019 +j   -62.151

ELEMENT = "Line.L8"
8         2           9.3189 /_ -146.7 =    -7.7852 +j   -5.1218
------------
12        2           9.3191 /_   33.3 =     7.7856 +j    5.1215

ELEMENT = "Line.L9"
8         1           46.542 /_  -26.9 =     41.499 +j    -21.07
------------
9         1           46.542 /_  153.1 =    -41.499 +j    21.071

ELEMENT = "Line.L10"
8         1           71.615 /_  -30.2 =     61.889 +j   -36.035
8         2           59.192 /_ -159.2 =    -55.344 +j   -20.992
8         3           62.353 /_   85.4 =      5.019 +j    62.151
------------
13        1           71.616 /_  149.8 =    -61.889 +j    36.035
13        2           59.192 /_   20.8 =     55.345 +j    20.992
13        3           62.353 /_  -94.6 =    -5.0197 +j   -62.151

ELEMENT = "Line.L11"
9         1           27.767 /_  -26.9 =     24.755 +j   -12.578
------------
14        1           27.767 /_  153.1 =    -24.755 +j    12.579

ELEMENT = "Line.L12"
13        3            46.67 /_   93.3 =    -2.6988 +j    46.592
------------
34        3           46.671 /_  -86.7 =     2.6986 +j   -46.593

ELEMENT = "Line.L13"
13        1           7.9372 /_   55.7 =     4.4676 +j    6.5605
13        2           1.1195 /_   -8.2 =      1.108 +j  -0.15998
13        3           12.907 /_ -108.8 =    -4.1497 +j   -12.222
------------
18        1           7.9347 /_ -124.3 =    -4.4673 +j   -6.5577
18        2           1.1173 /_  171.8 =     -1.106 +j   0.15866
18        3           12.905 /_   71.3 =     4.1476 +j     12.22

ELEMENT = "Line.L14"
14        1           18.451 /_  -26.9 =     16.448 +j    -8.359
------------
11        1           18.451 /_  153.1 =    -16.448 +j    8.3595

ELEMENT = "Line.L15"
14        1           9.3167 /_  -26.9 =     8.3063 +j   -4.2198
------------
10        1           9.3169 /_  153.1 =    -8.3063 +j    4.2203

ELEMENT = "Line.L16"
15        3           18.763 /_   93.3 =    -1.0808 +j    18.732
------------
16        3           18.763 /_  -86.7 =     1.0801 +j   -18.732

ELEMENT = "Line.L17"
15        3           9.3764 /_   93.3 =   -0.54208 +j    9.3607
------------
17        3           9.3767 /_  -86.7 =    0.54146 +j   -9.3611

ELEMENT = "Line.L18"
18        1           37.427 /_  -27.0 =      33.36 +j   -16.966
------------
19        1           37.427 /_  153.0 =     -33.36 +j    16.967

ELEMENT = "Line.L19"
18        1           10.185 /_  -17.1 =     9.7369 +j   -2.9883
18        2           7.3346 /_ -150.9 =    -6.4071 +j   -3.5702
18        3           24.085 /_   94.1 =    -1.7204 +j    24.023
------------
21        1           10.185 /_  162.9 =    -9.7369 +j    2.9894
21        2            7.335 /_   29.1 =     6.4078 +j    3.5697
21        3           24.085 /_  -85.9 =     1.7197 +j   -24.024

ELEMENT = "Line.L20"
19        1           18.634 /_  -27.0 =     16.608 +j   -8.4494
------------
20        1           18.634 /_  153.0 =    -16.608 +j      8.45

ELEMENT = "Line.L21"
21        2           18.597 /_ -146.7 =    -15.544 +j    -10.21
------------
22        2           18.598 /_   33.3 =     15.545 +j    10.209

ELEMENT = "Line.L22"
21        1           10.185 /_  -17.1 =     9.7369 +j   -2.9894
21        2           11.294 /_   36.0 =     9.1361 +j    6.6402
21        3           24.085 /_   94.1 =    -1.7197 +j    24.024
------------
N21       1           10.186 /_  162.9 =    -9.7368 +j    2.9902
N21       2           11.294 /_ -144.0 =    -9.1355 +j   -6.6406
N21       3           24.086 /_  -85.9 =     1.7191 +j   -24.024

ELEMENT = "Line.L23"
23        3           18.753 /_   93.3 =    -1.0806 +j    18.722
------------
24        3           18.754 /_  -86.7 =     1.0796 +j   -18.723

ELEMENT = "Line.L24"
23        1           10.186 /_  -17.1 =     9.7368 +j   -2.9902
23        2           11.294 /_   36.0 =     9.1355 +j    6.6406
23        3           5.3403 /_   96.9 =   -0.63844 +j     5.302
------------
25        1           10.186 /_  162.9 =    -9.7367 +j    2.9911
25        2           11.294 /_ -144.0 =    -9.1348 +j    -6.641
25        3           5.3408 /_  -83.1 =    0.63775 +j   -5.3026

ELEMENT = "Line.L25"
25        1           18.633 /_  -27.0 =     16.597 +j   -8.4693
25        3           18.754 /_   93.3 =    -1.0835 +j    18.723
------------
26        1           18.633 /_  153.0 =    -16.597 +j    8.4702
26        3           18.754 /_  -86.7 =     1.0828 +j   -18.723

ELEMENT = "Line.L26"
25        1           8.7791 /_  141.4 =    -6.8602 +j    5.4782
25        2           11.294 /_   36.0 =     9.1348 +j     6.641
25        3           13.427 /_  -88.1 =     0.4458 +j    -13.42
------------
28        1           8.7787 /_  -38.6 =     6.8603 +j   -5.4775
28        2           11.294 /_ -144.0 =    -9.1343 +j   -6.6413
28        3           13.427 /_   91.9 =    -0.4463 +j     13.42

ELEMENT = "Line.L27"
26        1           18.633 /_  -27.0 =     16.597 +j   -8.4702
26        3       0.00071764 /_ -141.1 =  -0.00055813 +j -0.00045111
------------
27        1           18.633 /_  153.0 =    -16.597 +j    8.4709
27        3                0 /_    0.0 =          0 +j         0

ELEMENT = "Line.L28"
26        3           18.755 /_   93.3 =    -1.0823 +j    18.724
------------
31        3           18.755 /_  -86.7 =     1.0819 +j   -18.724

ELEMENT = "Line.L29"
27        1           18.633 /_  -27.0 =     16.597 +j   -8.4709
------------
33        1           18.634 /_  153.0 =    -16.597 +j    8.4719

ELEMENT = "Line.L30"
28        1            27.29 /_  149.3 =    -23.467 +j    13.929
28        2           11.294 /_   36.0 =     9.1343 +j    6.6413
28        3           13.427 /_  -88.1 =     0.4463 +j    -13.42
------------
29        1           27.289 /_  -30.7 =     23.468 +j   -13.928
29        2           11.293 /_ -144.0 =    -9.1336 +j   -6.6418
29        3           13.426 /_   91.9 =   -0.44705 +j    13.419

ELEMENT = "Line.L31"
29        1           45.779 /_  150.8 =     -39.97 +j    22.318
29        2           11.293 /_   36.0 =     9.1336 +j    6.6418
29        3           13.426 /_  -88.1 =    0.44705 +j   -13.419
------------
30        1           45.778 /_  -29.2 =      39.97 +j   -22.317
30        2           11.293 /_ -144.0 =    -9.1328 +j   -6.6424
30        3           13.426 /_   91.9 =   -0.44793 +j    13.418

ELEMENT = "Line.L32"
30        1           45.778 /_  150.8 =     -39.97 +j    22.317
30        2           11.293 /_   36.0 =     9.1328 +j    6.6424
30        3            32.14 /_  -87.3 =     1.5298 +j   -32.104
------------
250       1           45.778 /_  -29.2 =      39.97 +j   -22.316
250       2           11.293 /_ -144.0 =    -9.1323 +j   -6.6427
250       3            32.14 /_   92.7 =    -1.5303 +j    32.103

ELEMENT = "Line.L33"
31        3           9.3793 /_   93.3 =   -0.54068 +j    9.3637
------------
32        3           9.3796 /_  -86.7 =    0.54015 +j    -9.364

ELEMENT = "Line.L34"
34        3           28.139 /_   93.3 =     -1.623 +j    28.093
------------
15        3            28.14 /_  -86.7 =     1.6228 +j   -28.093

ELEMENT = "Line.L35"
35        1           18.485 /_  -26.9 =     16.485 +j   -8.3629
35        2           18.654 /_ -146.7 =      -15.6 +j   -10.228
------------
36        1           18.486 /_  153.1 =    -16.486 +j    8.3645
36        2           18.655 /_   33.2 =     15.601 +j    10.227

ELEMENT = "Line.L36"
35        1           74.271 /_  152.5 =    -65.903 +j     34.25
35        2           36.778 /_   22.8 =     33.899 +j    14.264
35        3           36.324 /_  -93.8 =    -2.4261 +j   -36.243
------------
40        1           74.271 /_  -27.5 =     65.903 +j   -34.249
40        2           36.777 /_ -157.2 =    -33.898 +j   -14.264
40        3           36.324 /_   86.2 =     2.4255 +j    36.242

ELEMENT = "Line.L37"
36        1           18.486 /_  -26.9 =     16.486 +j   -8.3645
------------
37        1           18.486 /_  153.1 =    -16.486 +j    8.3651

ELEMENT = "Line.L38"
36        2           18.655 /_ -146.8 =    -15.601 +j   -10.227
------------
38        2           18.655 /_   33.2 =     15.602 +j    10.227

ELEMENT = "Line.L39"
38        2           9.3378 /_ -146.8 =    -7.8098 +j   -5.1189
------------
39        2           9.3381 /_   33.2 =     7.8103 +j    5.1185

ELEMENT = "Line.L40"
40        3           9.3429 /_   93.4 =   -0.54903 +j    9.3267
------------
41        3           9.3432 /_  -86.6 =    0.54845 +j   -9.3271

ELEMENT = "Line.L41"
40        1           74.271 /_  152.5 =    -65.903 +j    34.249
40        2           36.777 /_   22.8 =     33.898 +j    14.264
40        3           45.608 /_  -92.4 =    -1.8764 +j   -45.569
------------
42        1           74.271 /_  -27.5 =     65.902 +j   -34.249
42        2           36.777 /_ -157.2 =    -33.898 +j   -14.265
42        3           45.607 /_   87.6 =     1.8758 +j    45.569

ELEMENT = "Line.L42"
42        2           18.597 /_ -146.7 =    -15.541 +j   -10.213
------------
43        2           18.597 /_   33.3 =     15.542 +j    10.213

ELEMENT = "Line.L43"
42        1           83.625 /_  152.6 =    -74.255 +j    38.463
42        2           55.167 /_   26.3 =     49.439 +j    24.478
42        3           45.607 /_  -92.4 =    -1.8758 +j   -45.569
------------
44        1           83.625 /_  -27.4 =     74.255 +j   -38.462
44        2           55.167 /_ -153.7 =    -49.438 +j   -24.479
44        3           45.607 /_   87.6 =     1.8753 +j    45.569

ELEMENT = "Line.L44"
44        1           18.671 /_  -26.7 =     16.674 +j   -8.4022
------------
45        1           18.671 /_  153.3 =    -16.674 +j    8.4026

ELEMENT = "Line.L45"
44        1            102.3 /_  152.7 =    -90.929 +j    46.864
44        2           55.167 /_   26.3 =     49.438 +j    24.479
44        3           45.607 /_  -92.4 =    -1.8753 +j   -45.569
------------
47        1           102.29 /_  -27.3 =     90.929 +j   -46.863
47        2           55.166 /_ -153.7 =    -49.438 +j   -24.479
47        3           45.607 /_   87.6 =     1.8746 +j    45.568

ELEMENT = "Line.L46"
45        1           9.3544 /_  -26.7 =     8.3534 +j   -4.2101
------------
46        1           9.3547 /_  153.2 =    -8.3534 +j    4.2107

ELEMENT = "Line.L47"
47        1              193 /_  150.7 =    -168.39 +j    94.309
47        2           120.04 /_   26.4 =     107.54 +j    53.348
47        3           130.97 /_  -90.4 =   -0.94713 +j   -130.96
------------
48        1              193 /_  -29.3 =     168.39 +j   -94.309
48        2           120.04 /_ -153.6 =    -107.54 +j   -53.348
48        3           130.97 /_   89.6 =    0.94669 +j    130.96

ELEMENT = "Line.L48"
47        1            72.99 /_  -30.5 =     62.911 +j    -37.01
47        2           46.985 /_ -152.8 =    -41.795 +j   -21.466
47        3           67.623 /_   92.3 =    -2.6711 +j     67.57
------------
49        1            72.99 /_  149.5 =     -62.91 +j    37.011
49        2           46.986 /_   27.2 =     41.796 +j    21.466
49        3           67.623 /_  -87.7 =     2.6703 +j   -67.571

ELEMENT = "Line.L49"
49        1           55.124 /_  -28.8 =     48.319 +j   -26.531
49        2            11.29 /_ -144.0 =    -9.1292 +j   -6.6431
49        3           50.816 /_   93.0 =    -2.6195 +j    50.749
------------
50        1           55.124 /_  151.2 =    -48.318 +j    26.532
50        2           11.291 /_   36.0 =       9.13 +j     6.643
50        3           50.817 /_  -87.0 =     2.6187 +j   -50.749

ELEMENT = "Line.L50"
50        1           55.124 /_  -28.8 =     48.318 +j   -26.532
50        2           11.291 /_ -144.0 =      -9.13 +j    -6.643
50        3           32.139 /_   92.7 =    -1.5325 +j    32.103
------------
51        1           55.124 /_  151.2 =    -48.318 +j    26.532
51        2           11.292 /_   36.0 =     9.1308 +j    6.6429
51        3           32.139 /_  -87.3 =     1.5318 +j   -32.103

ELEMENT = "Line.L51"
51        1           45.778 /_  -29.2 =      39.97 +j   -22.315
51        2           11.292 /_ -144.0 =    -9.1308 +j   -6.6429
51        3           32.139 /_   92.7 =    -1.5318 +j    32.103
------------
151       1           45.778 /_  150.8 =     -39.97 +j    22.316
151       2           11.293 /_   36.0 =     9.1323 +j    6.6427
151       3            32.14 /_  -87.3 =     1.5303 +j   -32.103

ELEMENT = "Line.L52"
52        1           53.049 /_  -40.0 =     40.658 +j   -34.076
52        2           60.175 /_ -159.7 =    -56.454 +j   -20.831
52        3            30.21 /_   66.9 =     11.869 +j    27.781
------------
53        1           53.049 /_  140.0 =    -40.658 +j    34.076
53        2           60.175 /_   20.3 =     56.455 +j    20.831
53        3           30.211 /_ -113.1 =     -11.87 +j   -27.781

ELEMENT = "Line.L53"
53        1            34.97 /_  -46.9 =     23.881 +j   -25.546
53        2           60.175 /_ -159.7 =    -56.455 +j   -20.831
53        3           30.211 /_   66.9 =      11.87 +j    27.781
------------
54        1           34.971 /_  133.1 =    -23.881 +j    25.547
54        2           60.175 /_   20.3 =     56.455 +j     20.83
54        3           30.211 /_ -113.1 =     -11.87 +j   -27.781

ELEMENT = "Line.L54"
54        1           9.2188 /_  -26.9 =     8.2184 +j   -4.1766
54        2           9.3402 /_ -146.8 =    -7.8142 +j   -5.1164
54        3        0.0015775 /_ -153.8 =  -0.0014156 +j -0.00069621
------------
55        1           9.2193 /_  153.1 =    -8.2186 +j    4.1774
55        2           9.3406 /_   33.2 =      7.815 +j    5.1159
55        3       0.00078876 /_   26.2 =  0.00070779 +j 0.00034811

ELEMENT = "Line.L55"
54        1           26.495 /_  -53.8 =     15.663 +j    -21.37
54        2           51.116 /_ -162.1 =    -48.641 +j   -15.714
54        3           30.212 /_   66.9 =     11.872 +j    27.782
------------
57        1           26.496 /_  126.2 =    -15.663 +j    21.371
57        2           51.117 /_   17.9 =     48.642 +j    15.714
57        3           30.213 /_ -113.1 =    -11.873 +j   -27.783

ELEMENT = "Line.L56"
55        1       0.00086841 /_   97.8 =  -0.00011744 +j 0.00086043
55        2           9.3406 /_ -146.8 =     -7.815 +j   -5.1159
55        3       0.00078876 /_ -153.8 =  -0.00070779 +j -0.00034811
------------
56        1      5.1449E-012 /_  -45.0 =  3.638E-012 +j -3.638E-012
56        2           9.3409 /_   33.2 =     7.8158 +j    5.1153
56        3       1.627E-011 /_   63.4 =  7.276E-012 +j 1.4552E-011

ELEMENT = "Line.L57"
57        2           18.676 /_ -146.8 =     -15.63 +j   -10.221
------------
58        2           18.676 /_   33.2 =     15.631 +j    10.221

ELEMENT = "Line.L58"
57        1           26.496 /_  -53.8 =     15.663 +j   -21.371
57        2           33.465 /_ -170.6 =    -33.011 +j   -5.4926
57        3           30.213 /_   66.9 =     11.873 +j    27.783
------------
60        1           26.498 /_  126.2 =    -15.662 +j    21.373
60        2           33.467 /_    9.4 =     33.014 +j    5.4918
60        3           30.215 /_ -113.1 =    -11.875 +j   -27.784

ELEMENT = "Line.L59"
58        2           9.3589 /_ -146.8 =    -7.8331 +j   -5.1216
------------
59        2           9.3591 /_   33.2 =     7.8336 +j    5.1213

ELEMENT = "Line.L60"
60        1         0.001856 /_   94.1 =  -0.0001329 +j 0.0018513
60        2        0.0017405 /_  -38.2 =  0.0013669 +j -0.0010774
60        3        0.0015752 /_ -146.6 =  -0.0013144 +j -0.00086819
------------
61        1      4.5475E-012 /_  126.9 =  -2.7285E-012 +j 3.638E-012
61        2      7.7307E-012 /_  -28.1 =  6.8212E-012 +j -3.638E-012
61        3                0 /_    0.0 =          0 +j         0

ELEMENT = "Line.L61"
60        1           43.303 /_ -146.8 =     -36.25 +j   -23.687
60        2           26.667 /_   89.5 =    0.22183 +j    26.666
60        3           24.297 /_  -25.3 =     21.961 +j   -10.394
------------
62        1           43.307 /_   33.2 =      36.25 +j    23.695
62        2           26.671 /_  -90.5 =   -0.21526 +j    -26.67
62        3           24.301 /_  154.7 =    -21.968 +j     10.39

ELEMENT = "Line.L62"
62        1           43.307 /_ -146.8 =     -36.25 +j   -23.695
62        2           26.671 /_   89.5 =    0.21526 +j     26.67
62        3           36.948 /_  -51.4 =     23.046 +j    -28.88
------------
63        1            43.31 /_   33.2 =      36.25 +j      23.7
63        2           26.674 /_  -90.5 =   -0.21067 +j   -26.673
63        3           36.949 /_  128.6 =     -23.05 +j    28.877

ELEMENT = "Line.L63"
63        1            55.19 /_ -164.0 =    -53.057 +j   -15.195
63        2           26.674 /_   89.5 =    0.21067 +j    26.673
63        3           36.949 /_  -51.4 =      23.05 +j   -28.877
------------
64        1           55.193 /_   16.0 =     53.057 +j    15.205
64        2           26.679 /_  -90.4 =   -0.20147 +j   -26.678
64        3           36.951 /_  128.6 =     -23.06 +j    28.872

ELEMENT = "Line.L64"
64        1           118.92 /_  175.9 =    -118.62 +j    8.4031
64        2           92.319 /_   53.2 =      55.28 +j    73.939
64        3           75.238 /_  -67.2 =     29.215 +j   -69.334
------------
65        1           118.91 /_   -4.0 =     118.62 +j   -8.3902
65        2           92.318 /_ -126.8 =    -55.269 +j   -73.945
65        3           75.236 /_  112.9 =    -29.226 +j    69.327

ELEMENT = "Line.L65"
65        1           140.22 /_  168.4 =    -137.37 +j    28.162
65        2            108.3 /_   48.7 =      71.52 +j    81.323
65        3           101.56 /_  -71.8 =     31.723 +j   -96.478
------------
66        1           140.22 /_  -11.6 =     137.37 +j   -28.152
66        2            108.3 /_ -131.3 =    -71.512 +j   -81.328
66        3           101.56 /_  108.2 =    -31.732 +j    96.473

ELEMENT = "Line.L66"
67        1           56.796 /_  -27.1 =     50.571 +j   -25.854
------------
68        1           56.796 /_  152.9 =    -50.571 +j    25.854

ELEMENT = "Line.L67"
67        1           50.089 /_  109.4 =    -16.637 +j    47.245
67        2           31.653 /_ -113.9 =    -12.814 +j   -28.943
67        3           18.205 /_  133.7 =    -12.577 +j    13.162
------------
72        1           50.088 /_  -70.6 =     16.637 +j   -47.244
72        2           31.653 /_   66.1 =     12.814 +j    28.943
72        3           18.204 /_  -46.3 =     12.576 +j   -13.162

ELEMENT = "Line.L68"
67        1           17.633 /_  -57.1 =     9.5749 +j   -14.807
67        2           20.675 /_ -171.1 =    -20.424 +j   -3.2132
67        3           25.141 /_   84.3 =     2.4928 +j    25.017
------------
97        1           17.634 /_  122.9 =    -9.5748 +j    14.808
97        2           20.676 /_    8.9 =     20.425 +j    3.2129
97        3           25.142 /_  -95.7 =    -2.4936 +j   -25.018

ELEMENT = "Line.L69"
68        1           47.354 /_  -27.1 =     42.159 +j   -21.563
------------
69        1           47.354 /_  152.9 =    -42.159 +j    21.563

ELEMENT = "Line.L70"
69        1           28.433 /_  -27.1 =     25.311 +j   -12.953
------------
70        1           28.433 /_  152.9 =    -25.311 +j    12.954

ELEMENT = "Line.L71"
70        1            18.96 /_  -27.1 =     16.877 +j   -8.6394
------------
71        1            18.96 /_  152.9 =    -16.877 +j    8.6399

ELEMENT = "Line.L72"
72        3           56.097 /_   93.2 =    -3.0982 +j    56.011
------------
73        3           56.097 /_  -86.8 =     3.0977 +j   -56.011

ELEMENT = "Line.L73"
72        1           50.088 /_  109.4 =    -16.637 +j    47.244
72        2           31.653 /_ -113.9 =    -12.814 +j   -28.943
72        3           43.885 /_ -102.5 =    -9.4779 +j   -42.849
------------
76        1           50.087 /_  -70.6 =     16.637 +j   -47.243
76        2           31.653 /_   66.1 =     12.815 +j    28.943
76        3           43.885 /_   77.5 =     9.4773 +j    42.849

ELEMENT = "Line.L74"
73        3            37.29 /_   93.2 =    -2.0494 +j    37.233
------------
74        3            37.29 /_  -86.9 =     2.0488 +j   -37.234

ELEMENT = "Line.L75"
74        3           18.862 /_   93.1 =    -1.0333 +j    18.834
------------
75        3           18.863 /_  -86.9 =     1.0326 +j   -18.834

ELEMENT = "Line.L76"
76        1           112.41 /_  143.5 =    -90.319 +j    66.927
76        2           74.415 /_   23.5 =     68.227 +j    29.709
76        3           87.117 /_  -86.1 =     5.8938 +j   -86.918
------------
77        1           112.41 /_  -36.5 =     90.319 +j   -66.926
77        2           74.414 /_ -156.5 =    -68.226 +j   -29.709
77        3           87.117 /_   93.9 =     -5.895 +j    86.917

ELEMENT = "Line.L77"
N86       1           33.957 /_    5.7 =     33.786 +j    3.4008
N86       2           59.414 /_ -129.1 =    -37.497 +j   -46.087
N86       3           20.802 /_  156.1 =    -19.022 +j    8.4195
------------
86        1           33.956 /_ -174.3 =    -33.786 +j   -3.3988
86        2           59.414 /_   50.9 =     37.499 +j    46.086
86        3             20.8 /_  -23.9 =     19.019 +j   -8.4205

ELEMENT = "Line.L78"
77        1           112.41 /_  143.5 =    -90.319 +j    66.926
77        2           92.938 /_   25.5 =     83.912 +j    39.954
77        3           87.117 /_  -86.1 =      5.895 +j   -86.917
------------
78        1           112.41 /_  -36.5 =     90.319 +j   -66.926
78        2           92.938 /_ -154.5 =    -83.911 +j   -39.954
78        3           87.117 /_   93.9 =    -5.8952 +j    86.917

ELEMENT = "Line.L79"
78        1           18.493 /_  -26.9 =     16.495 +j   -8.3621
78        2       0.00064508 /_  -26.6 =  0.00057687 +j -0.0002887
78        3       0.00076378 /_ -145.8 =  -0.00063158 +j -0.00042949
------------
79        1           18.494 /_  153.1 =    -16.495 +j    8.3628
79        2      9.0949E-012 /_ -126.9 =  -5.457E-012 +j -7.276E-012
79        3      2.6234E-011 /_   33.7 =  2.1828E-011 +j 1.4552E-011

ELEMENT = "Line.L80"
78        1           130.68 /_  144.8 =    -106.81 +j    75.288
78        2           92.937 /_   25.5 =     83.911 +j    39.954
78        3           87.116 /_  -86.1 =     5.8959 +j   -86.916
------------
80        1           130.68 /_  -35.2 =     106.81 +j   -75.286
80        2           92.936 /_ -154.5 =     -83.91 +j   -39.955
80        3           87.115 /_   93.9 =    -5.8972 +j    86.915

ELEMENT = "Line.L81"
80        1           130.68 /_  144.8 =    -106.81 +j    75.286
80        2           111.48 /_   26.8 =     99.537 +j    50.205
80        3           87.115 /_  -86.1 =     5.8972 +j   -86.915
------------
81        1           130.68 /_  -35.2 =     106.81 +j   -75.286
81        2           111.48 /_ -153.2 =    -99.536 +j   -50.205
81        3           87.115 /_   93.9 =    -5.8977 +j    86.915

ELEMENT = "Line.L82"
81        1           130.68 /_  144.8 =    -106.81 +j    75.286
81        2           111.48 /_   26.8 =     99.536 +j    50.205
81        3           115.22 /_  -86.3 =     7.5009 +j   -114.97
------------
82        1           130.68 /_  -35.2 =     106.81 +j   -75.285
82        2           111.48 /_ -153.2 =    -99.535 +j   -50.205
82        3           115.22 /_   93.7 =    -7.5016 +j    114.97

ELEMENT = "Line.L83"
81        3           28.102 /_   93.3 =    -1.6032 +j    28.056
------------
84        3           28.102 /_  -86.7 =      1.602 +j   -28.057

ELEMENT = "Line.L84"
82        1           149.16 /_  145.9 =    -123.49 +j    83.657
82        2           111.48 /_   26.8 =     99.535 +j    50.205
82        3           115.22 /_  -86.3 =     7.5016 +j   -114.97
------------
83        1           149.16 /_  -34.1 =     123.49 +j   -83.656
83        2           111.48 /_ -153.2 =    -99.535 +j   -50.206
83        3           115.21 /_   93.7 =    -7.5023 +j    114.97

ELEMENT = "Line.L85"
84        3           18.743 /_   93.3 =    -1.0661 +j    18.712
------------
85        3           18.743 /_  -86.7 =     1.0652 +j   -18.713

ELEMENT = "Line.L86"
86        1           33.956 /_    5.7 =     33.786 +j    3.3988
86        2           50.556 /_ -125.9 =    -29.611 +j   -40.977
86        3             20.8 /_  156.1 =    -19.019 +j    8.4205
------------
87        1           33.956 /_ -174.3 =    -33.786 +j   -3.3974
87        2           50.557 /_   54.1 =     29.612 +j    40.977
87        3           20.799 /_  -23.9 =     19.018 +j   -8.4213

ELEMENT = "Line.L87"
87        1            20.77 /_   35.2 =     16.967 +j     11.98
------------
88        1            20.77 /_ -144.8 =    -16.967 +j   -11.979

ELEMENT = "Line.L88"
87        1           18.882 /_  -27.0 =     16.819 +j   -8.5824
87        2           33.732 /_ -114.2 =    -13.806 +j   -30.777
87        3           20.799 /_  156.1 =    -19.018 +j    8.4213
------------
89        1           18.882 /_  153.0 =    -16.819 +j    8.5832
89        2           33.732 /_   65.8 =     13.806 +j    30.777
89        3           20.799 /_  -23.9 =     19.017 +j   -8.4219

ELEMENT = "Line.L89"
89        2           20.691 /_  -84.4 =     2.0364 +j   -20.591
------------
90        2           20.691 /_   95.6 =     -2.036 +j     20.59

ELEMENT = "Line.L90"
89        1           18.882 /_  -27.0 =     16.819 +j   -8.5832
89        2           18.835 /_ -147.3 =    -15.843 +j   -10.186
89        3           20.799 /_  156.1 =    -19.017 +j    8.4219
------------
91        1           18.883 /_  153.0 =    -16.819 +j    8.5839
91        2           18.835 /_   32.7 =     15.843 +j    10.186
91        3           20.798 /_  -23.9 =     19.017 +j   -8.4223

ELEMENT = "Line.L91"
91        3           20.797 /_  156.1 =    -19.015 +j    8.4233
------------
92        3           20.797 /_  -23.9 =     19.015 +j   -8.4236

ELEMENT = "Line.L92"
91        1           18.883 /_  -27.0 =     16.819 +j   -8.5839
91        2           18.835 /_ -147.3 =    -15.843 +j   -10.186
91        3          0.00178 /_ -146.0 =  -0.0014748 +j -0.00099657
------------
...